! This hub-height wind-speed file was generated by TurbSim (v2.00.07a-bjj, 14-Jun-2016) on 11-May-2021 at 17:40:14.
!
! The requested statistics for this data were:
!    Mean Total Wind Speed =   20.000 m/s
!    Turbulence Intensity  =   14.420%
!
!   Time  HorSpd  WndDir  VerSpd  HorShr  VerShr  LnVShr  GstSpd
!  (sec)   (m/s)   (deg)   (m/s)     (-)     (-)     (-)   (m/s)
   0.000   16.91  -15.05   -0.91   0.000   0.120   0.000    0.00
   0.050   16.59  -15.64    0.30   0.000   0.120   0.000    0.00
   0.100   15.99  -11.01    0.03   0.000   0.120   0.000    0.00
   0.150   16.45   -8.51   -0.99   0.000   0.120   0.000    0.00
   0.200   16.11  -11.49   -0.99   0.000   0.120   0.000    0.00
   0.250   15.85   -9.96   -0.96   0.000   0.120   0.000    0.00
   0.300   16.51  -10.64   -1.21   0.000   0.120   0.000    0.00
   0.350   16.95  -10.62   -0.90   0.000   0.120   0.000    0.00
   0.400   16.48  -11.67   -0.57   0.000   0.120   0.000    0.00
   0.450   16.03   -9.04   -0.07   0.000   0.120   0.000    0.00
   0.500   15.76  -10.72   -0.55   0.000   0.120   0.000    0.00
   0.550   15.82   -9.17   -2.01   0.000   0.120   0.000    0.00
   0.600   15.12   -5.70   -1.21   0.000   0.120   0.000    0.00
   0.650   14.88   -6.13   -1.62   0.000   0.120   0.000    0.00
   0.700   15.81   -4.96   -2.01   0.000   0.120   0.000    0.00
   0.750   15.46   -4.07   -1.14   0.000   0.120   0.000    0.00
   0.800   16.32   -7.52   -1.37   0.000   0.120   0.000    0.00
   0.850   16.23   -9.55   -0.89   0.000   0.120   0.000    0.00
   0.900   17.02   -8.75   -1.29   0.000   0.120   0.000    0.00
   0.950   17.32   -7.60   -1.19   0.000   0.120   0.000    0.00
   1.000   17.57   -6.14   -0.78   0.000   0.120   0.000    0.00
   1.050   17.96   -7.07   -0.69   0.000   0.120   0.000    0.00
   1.100   17.75   -7.71   -0.39   0.000   0.120   0.000    0.00
   1.150   17.48   -6.31    0.02   0.000   0.120   0.000    0.00
   1.200   18.08   -3.72   -0.46   0.000   0.120   0.000    0.00
   1.250   18.49   -3.23    1.04   0.000   0.120   0.000    0.00
   1.300   18.14   -2.74    1.39   0.000   0.120   0.000    0.00
   1.350   18.24   -5.69    1.35   0.000   0.120   0.000    0.00
   1.400   18.90   -3.43    1.70   0.000   0.120   0.000    0.00
   1.450   18.77   -2.75    0.96   0.000   0.120   0.000    0.00
   1.500   18.86   -3.31    1.69   0.000   0.120   0.000    0.00
   1.550   18.86   -6.48    1.39   0.000   0.120   0.000    0.00
   1.600   19.00   -3.99    0.58   0.000   0.120   0.000    0.00
   1.650   19.15   -7.38    0.45   0.000   0.120   0.000    0.00
   1.700   18.64  -10.24    0.58   0.000   0.120   0.000    0.00
   1.750   17.72   -7.66    0.74   0.000   0.120   0.000    0.00
   1.800   17.83   -8.18   -0.36   0.000   0.120   0.000    0.00
   1.850   17.28   -7.50   -0.20   0.000   0.120   0.000    0.00
   1.900   17.15   -6.41   -0.25   0.000   0.120   0.000    0.00
   1.950   18.36   -8.57   -0.23   0.000   0.120   0.000    0.00
   2.000   18.89  -11.01   -0.85   0.000   0.120   0.000    0.00
   2.050   19.14  -11.77   -0.66   0.000   0.120   0.000    0.00
   2.100   19.27  -12.68    0.06   0.000   0.120   0.000    0.00
   2.150   18.85  -11.65    0.11   0.000   0.120   0.000    0.00
   2.200   18.49  -10.07   -0.57   0.000   0.120   0.000    0.00
   2.250   18.51  -10.73   -1.11   0.000   0.120   0.000    0.00
   2.300   17.90  -12.82   -1.04   0.000   0.120   0.000    0.00
   2.350   17.55  -13.55   -0.61   0.000   0.120   0.000    0.00
   2.400   18.39  -12.60   -1.08   0.000   0.120   0.000    0.00
   2.450   19.08  -12.21   -1.27   0.000   0.120   0.000    0.00
   2.500   18.31  -11.58   -1.47   0.000   0.120   0.000    0.00
   2.550   18.53  -10.23   -0.82   0.000   0.120   0.000    0.00
   2.600   18.46   -9.79   -0.72   0.000   0.120   0.000    0.00
   2.650   18.72  -11.19   -0.62   0.000   0.120   0.000    0.00
   2.700   19.03  -11.62   -0.85   0.000   0.120   0.000    0.00
   2.750   19.92   -9.33   -1.12   0.000   0.120   0.000    0.00
   2.800   19.57   -7.65   -0.92   0.000   0.120   0.000    0.00
   2.850   19.46   -6.63   -0.48   0.000   0.120   0.000    0.00
   2.900   19.53   -5.15   -0.24   0.000   0.120   0.000    0.00
   2.950   19.97   -4.47   -0.48   0.000   0.120   0.000    0.00
   3.000   19.85   -5.78   -0.14   0.000   0.120   0.000    0.00
   3.050   19.49   -4.24   -0.28   0.000   0.120   0.000    0.00
   3.100   19.02   -2.46   -0.46   0.000   0.120   0.000    0.00
   3.150   19.73   -4.58   -1.00   0.000   0.120   0.000    0.00
   3.200   20.36   -4.89   -0.26   0.000   0.120   0.000    0.00
   3.250   20.29   -6.47   -0.10   0.000   0.120   0.000    0.00
   3.300   20.09   -6.38    0.26   0.000   0.120   0.000    0.00
   3.350   20.48   -4.57   -0.04   0.000   0.120   0.000    0.00
   3.400   20.54   -6.96   -0.35   0.000   0.120   0.000    0.00
   3.450   20.32   -5.49   -0.00   0.000   0.120   0.000    0.00
   3.500   19.42   -6.66   -0.55   0.000   0.120   0.000    0.00
   3.550   18.04   -6.34   -1.18   0.000   0.120   0.000    0.00
   3.600   17.79   -4.47   -0.45   0.000   0.120   0.000    0.00
   3.650   17.77   -3.86   -0.41   0.000   0.120   0.000    0.00
   3.700   17.53   -3.40    0.60   0.000   0.120   0.000    0.00
   3.750   17.62   -3.40    0.96   0.000   0.120   0.000    0.00
   3.800   18.45   -4.23    2.07   0.000   0.120   0.000    0.00
   3.850   18.77   -5.51    0.83   0.000   0.120   0.000    0.00
   3.900   19.36   -4.37   -0.13   0.000   0.120   0.000    0.00
   3.950   18.75   -4.87   -0.45   0.000   0.120   0.000    0.00
   4.000   18.15   -1.99   -1.31   0.000   0.120   0.000    0.00
   4.050   17.73   -3.02   -0.87   0.000   0.120   0.000    0.00
   4.100   17.37   -2.71   -0.23   0.000   0.120   0.000    0.00
   4.150   17.81   -3.92   -0.31   0.000   0.120   0.000    0.00
   4.200   17.87   -5.47    0.34   0.000   0.120   0.000    0.00
   4.250   17.52   -6.36    0.52   0.000   0.120   0.000    0.00
   4.300   18.55   -4.56    0.46   0.000   0.120   0.000    0.00
   4.350   18.74   -4.05    0.55   0.000   0.120   0.000    0.00
   4.400   18.13   -2.85   -0.27   0.000   0.120   0.000    0.00
   4.450   18.45   -3.41   -0.66   0.000   0.120   0.000    0.00
   4.500   19.09   -2.74   -0.12   0.000   0.120   0.000    0.00
   4.550   19.00   -2.83   -0.78   0.000   0.120   0.000    0.00
   4.600   18.92   -1.11   -1.33   0.000   0.120   0.000    0.00
   4.650   18.91   -1.45   -1.61   0.000   0.120   0.000    0.00
   4.700   19.30   -3.40   -1.17   0.000   0.120   0.000    0.00
   4.750   18.70   -5.09   -0.52   0.000   0.120   0.000    0.00
   4.800   18.56   -4.69    0.38   0.000   0.120   0.000    0.00
   4.850   18.69   -4.54    1.32   0.000   0.120   0.000    0.00
   4.900   18.02   -6.39    1.03   0.000   0.120   0.000    0.00
   4.950   17.74   -9.78    0.48   0.000   0.120   0.000    0.00
   5.000   17.78   -9.35    0.14   0.000   0.120   0.000    0.00
   5.050   18.08   -6.67    0.66   0.000   0.120   0.000    0.00
   5.100   18.05   -7.56    0.32   0.000   0.120   0.000    0.00
   5.150   18.60   -4.59    0.35   0.000   0.120   0.000    0.00
   5.200   18.76   -6.53    1.41   0.000   0.120   0.000    0.00
   5.250   18.66   -2.30    1.39   0.000   0.120   0.000    0.00
   5.300   19.09   -4.17    1.04   0.000   0.120   0.000    0.00
   5.350   19.06   -6.55    1.08   0.000   0.120   0.000    0.00
   5.400   17.98   -6.66    2.06   0.000   0.120   0.000    0.00
   5.450   18.41   -2.43    2.45   0.000   0.120   0.000    0.00
   5.500   18.26   -2.16    2.86   0.000   0.120   0.000    0.00
   5.550   18.74   -0.85    3.70   0.000   0.120   0.000    0.00
   5.600   18.38   -0.09    3.51   0.000   0.120   0.000    0.00
   5.650   18.28   -2.16    2.63   0.000   0.120   0.000    0.00
   5.700   18.24   -4.00    2.91   0.000   0.120   0.000    0.00
   5.750   18.02   -4.20    3.24   0.000   0.120   0.000    0.00
   5.800   18.35   -2.64    3.05   0.000   0.120   0.000    0.00
   5.850   19.07   -2.35    3.61   0.000   0.120   0.000    0.00
   5.900   19.71   -4.65    2.67   0.000   0.120   0.000    0.00
   5.950   19.84   -2.47    3.39   0.000   0.120   0.000    0.00
   6.000   19.27   -0.82    3.92   0.000   0.120   0.000    0.00
   6.050   20.01   -4.11    3.45   0.000   0.120   0.000    0.00
   6.100   19.57   -2.84    3.19   0.000   0.120   0.000    0.00
   6.150   19.06   -1.33    2.58   0.000   0.120   0.000    0.00
   6.200   19.28   -3.51    2.53   0.000   0.120   0.000    0.00
   6.250   19.76   -4.16    2.56   0.000   0.120   0.000    0.00
   6.300   20.45   -5.46    1.39   0.000   0.120   0.000    0.00
   6.350   20.66   -6.77    0.86   0.000   0.120   0.000    0.00
   6.400   20.87   -7.44    1.54   0.000   0.120   0.000    0.00
   6.450   20.47   -6.13    1.80   0.000   0.120   0.000    0.00
   6.500   20.48   -5.50    1.89   0.000   0.120   0.000    0.00
   6.550   20.42   -8.30    1.55   0.000   0.120   0.000    0.00
   6.600   19.93   -7.96    1.58   0.000   0.120   0.000    0.00
   6.650   19.55   -8.89    2.04   0.000   0.120   0.000    0.00
   6.700   19.46   -9.17    2.31   0.000   0.120   0.000    0.00
   6.750   19.98   -7.58    2.60   0.000   0.120   0.000    0.00
   6.800   20.20   -9.89    2.75   0.000   0.120   0.000    0.00
   6.850   20.12  -10.77    2.14   0.000   0.120   0.000    0.00
   6.900   20.19   -4.30    1.22   0.000   0.120   0.000    0.00
   6.950   19.95   -5.05    1.24   0.000   0.120   0.000    0.00
   7.000   20.25   -5.08    1.58   0.000   0.120   0.000    0.00
   7.050   20.07   -3.88    2.18   0.000   0.120   0.000    0.00
   7.100   20.85   -3.07    2.86   0.000   0.120   0.000    0.00
   7.150   21.07   -1.86    3.87   0.000   0.120   0.000    0.00
   7.200   19.97   -1.86    4.49   0.000   0.120   0.000    0.00
   7.250   19.66   -3.96    4.01   0.000   0.120   0.000    0.00
   7.300   21.11   -5.18    3.02   0.000   0.120   0.000    0.00
   7.350   21.10   -4.98    3.79   0.000   0.120   0.000    0.00
   7.400   21.52   -4.52    3.95   0.000   0.120   0.000    0.00
   7.450   21.35   -4.49    3.49   0.000   0.120   0.000    0.00
   7.500   21.22   -2.89    2.90   0.000   0.120   0.000    0.00
   7.550   20.80   -2.88    2.64   0.000   0.120   0.000    0.00
   7.600   19.78   -4.91    3.09   0.000   0.120   0.000    0.00
   7.650   20.11   -4.60    3.06   0.000   0.120   0.000    0.00
   7.700   19.19   -1.85    3.20   0.000   0.120   0.000    0.00
   7.750   20.21   -3.53    3.10   0.000   0.120   0.000    0.00
   7.800   19.56   -1.82    3.78   0.000   0.120   0.000    0.00
   7.850   19.09   -2.08    3.37   0.000   0.120   0.000    0.00
   7.900   19.42    0.38    2.13   0.000   0.120   0.000    0.00
   7.950   19.97   -1.69    2.28   0.000   0.120   0.000    0.00
   8.000   19.08   -1.47    2.14   0.000   0.120   0.000    0.00
   8.050   18.73   -2.44    1.60   0.000   0.120   0.000    0.00
   8.100   18.57   -6.00    1.75   0.000   0.120   0.000    0.00
   8.150   18.96   -9.56    1.48   0.000   0.120   0.000    0.00
   8.200   18.64  -10.43    1.66   0.000   0.120   0.000    0.00
   8.250   19.57   -7.13    2.19   0.000   0.120   0.000    0.00
   8.300   19.52   -7.93    2.80   0.000   0.120   0.000    0.00
   8.350   19.94   -6.03    2.25   0.000   0.120   0.000    0.00
   8.400   20.29   -4.85    2.41   0.000   0.120   0.000    0.00
   8.450   20.30   -3.10    1.99   0.000   0.120   0.000    0.00
   8.500   19.64   -3.37    1.44   0.000   0.120   0.000    0.00
   8.550   20.09   -3.21    1.24   0.000   0.120   0.000    0.00
   8.600   19.79   -4.52    0.16   0.000   0.120   0.000    0.00
   8.650   20.26   -5.01   -0.04   0.000   0.120   0.000    0.00
   8.700   20.88   -2.24    0.34   0.000   0.120   0.000    0.00
   8.750   20.71   -2.90    0.25   0.000   0.120   0.000    0.00
   8.800   21.05   -4.94    0.07   0.000   0.120   0.000    0.00
   8.850   20.65   -4.04    0.52   0.000   0.120   0.000    0.00
   8.900   20.88   -6.57    1.56   0.000   0.120   0.000    0.00
   8.950   20.93   -4.42    0.54   0.000   0.120   0.000    0.00
   9.000   20.03   -2.93    0.38   0.000   0.120   0.000    0.00
   9.050   20.77   -1.57    0.36   0.000   0.120   0.000    0.00
   9.100   20.17   -2.15    0.47   0.000   0.120   0.000    0.00
   9.150   20.18   -0.42    0.51   0.000   0.120   0.000    0.00
   9.200   19.52   -3.16    1.18   0.000   0.120   0.000    0.00
   9.250   19.77   -4.09    0.61   0.000   0.120   0.000    0.00
   9.300   21.13   -1.76    1.16   0.000   0.120   0.000    0.00
   9.350   21.48   -6.76    1.47   0.000   0.120   0.000    0.00
   9.400   21.11   -7.36   -0.48   0.000   0.120   0.000    0.00
   9.450   21.58   -8.46   -0.33   0.000   0.120   0.000    0.00
   9.500   20.80   -7.56   -1.19   0.000   0.120   0.000    0.00
   9.550   20.42   -7.51    0.17   0.000   0.120   0.000    0.00
   9.600   20.59   -7.14    0.73   0.000   0.120   0.000    0.00
   9.650   21.45   -6.04   -0.04   0.000   0.120   0.000    0.00
   9.700   20.59   -6.84   -0.78   0.000   0.120   0.000    0.00
   9.750   20.75   -4.07   -1.28   0.000   0.120   0.000    0.00
   9.800   20.87   -3.69   -1.25   0.000   0.120   0.000    0.00
   9.850   20.87   -2.19   -0.42   0.000   0.120   0.000    0.00
   9.900   21.73   -4.26    0.79   0.000   0.120   0.000    0.00
   9.950   21.44   -4.73    0.32   0.000   0.120   0.000    0.00
  10.000   21.30   -2.85    0.39   0.000   0.120   0.000    0.00
  10.050   21.08   -3.20    0.51   0.000   0.120   0.000    0.00
  10.100   20.32   -3.36    1.24   0.000   0.120   0.000    0.00
  10.150   20.79   -3.72    2.00   0.000   0.120   0.000    0.00
  10.200   20.74   -4.36    1.97   0.000   0.120   0.000    0.00
  10.250   21.02   -5.29    0.81   0.000   0.120   0.000    0.00
  10.300   21.34   -6.57   -0.19   0.000   0.120   0.000    0.00
  10.350   21.57   -4.42   -0.18   0.000   0.120   0.000    0.00
  10.400   21.53   -1.98   -0.12   0.000   0.120   0.000    0.00
  10.450   22.03   -4.50    0.23   0.000   0.120   0.000    0.00
  10.500   21.52   -7.06    0.53   0.000   0.120   0.000    0.00
  10.550   21.40   -8.38    0.37   0.000   0.120   0.000    0.00
  10.600   21.50   -7.58    0.23   0.000   0.120   0.000    0.00
  10.650   21.34   -7.60    0.46   0.000   0.120   0.000    0.00
  10.700   21.17   -6.93    0.42   0.000   0.120   0.000    0.00
  10.750   20.62   -5.35    0.23   0.000   0.120   0.000    0.00
  10.800   20.20   -7.65   -0.05   0.000   0.120   0.000    0.00
  10.850   20.24   -7.20   -0.90   0.000   0.120   0.000    0.00
  10.900   20.12   -5.97   -0.40   0.000   0.120   0.000    0.00
  10.950   20.61   -7.46    0.07   0.000   0.120   0.000    0.00
  11.000   19.33   -9.14   -0.20   0.000   0.120   0.000    0.00
  11.050   20.15  -10.40   -0.51   0.000   0.120   0.000    0.00
  11.100   20.38  -10.99   -0.20   0.000   0.120   0.000    0.00
  11.150   21.22   -9.39    0.09   0.000   0.120   0.000    0.00
  11.200   21.20  -10.40   -0.12   0.000   0.120   0.000    0.00
  11.250   21.61  -12.75   -1.35   0.000   0.120   0.000    0.00
  11.300   21.61  -14.21   -0.74   0.000   0.120   0.000    0.00
  11.350   20.15  -12.90   -0.91   0.000   0.120   0.000    0.00
  11.400   20.32  -12.18   -1.22   0.000   0.120   0.000    0.00
  11.450   20.18  -11.75   -1.45   0.000   0.120   0.000    0.00
  11.500   19.60  -11.50   -1.88   0.000   0.120   0.000    0.00
  11.550   19.30  -13.18   -2.39   0.000   0.120   0.000    0.00
  11.600   19.33  -15.06   -1.79   0.000   0.120   0.000    0.00
  11.650   18.64  -14.34   -2.44   0.000   0.120   0.000    0.00
  11.700   18.37  -16.62   -1.91   0.000   0.120   0.000    0.00
  11.750   18.82  -16.23   -1.13   0.000   0.120   0.000    0.00
  11.800   19.11  -17.21   -1.77   0.000   0.120   0.000    0.00
  11.850   18.58  -15.15   -2.11   0.000   0.120   0.000    0.00
  11.900   19.35  -15.37   -1.06   0.000   0.120   0.000    0.00
  11.950   19.62  -14.46   -1.08   0.000   0.120   0.000    0.00
  12.000   19.49  -12.42   -0.24   0.000   0.120   0.000    0.00
  12.050   18.46  -13.59   -0.61   0.000   0.120   0.000    0.00
  12.100   19.50  -14.09   -1.27   0.000   0.120   0.000    0.00
  12.150   19.10  -12.86   -0.97   0.000   0.120   0.000    0.00
  12.200   18.53  -11.45   -2.01   0.000   0.120   0.000    0.00
  12.250   18.54  -11.42   -2.28   0.000   0.120   0.000    0.00
  12.300   18.92   -9.20   -1.00   0.000   0.120   0.000    0.00
  12.350   19.61  -10.16   -0.36   0.000   0.120   0.000    0.00
  12.400   19.92  -13.30   -1.09   0.000   0.120   0.000    0.00
  12.450   20.14  -12.87   -0.67   0.000   0.120   0.000    0.00
  12.500   19.63  -12.26   -0.96   0.000   0.120   0.000    0.00
  12.550   18.79  -12.52   -1.52   0.000   0.120   0.000    0.00
  12.600   18.40  -12.03   -0.88   0.000   0.120   0.000    0.00
  12.650   18.62  -11.01   -0.87   0.000   0.120   0.000    0.00
  12.700   19.06  -13.93   -0.65   0.000   0.120   0.000    0.00
  12.750   19.90  -12.25   -0.88   0.000   0.120   0.000    0.00
  12.800   19.43  -12.43   -0.45   0.000   0.120   0.000    0.00
  12.850   18.40  -10.13   -0.68   0.000   0.120   0.000    0.00
  12.900   18.34  -11.55   -0.10   0.000   0.120   0.000    0.00
  12.950   18.86   -9.73    0.24   0.000   0.120   0.000    0.00
  13.000   18.38  -10.75   -0.62   0.000   0.120   0.000    0.00
  13.050   18.36  -10.21   -0.61   0.000   0.120   0.000    0.00
  13.100   19.05  -10.26    0.06   0.000   0.120   0.000    0.00
  13.150   18.80   -8.83    0.14   0.000   0.120   0.000    0.00
  13.200   19.03  -10.25   -0.63   0.000   0.120   0.000    0.00
  13.250   18.98  -11.45    0.64   0.000   0.120   0.000    0.00
  13.300   19.31  -11.92    1.05   0.000   0.120   0.000    0.00
  13.350   19.46  -11.47    0.62   0.000   0.120   0.000    0.00
  13.400   19.52  -11.64    0.26   0.000   0.120   0.000    0.00
  13.450   20.21  -10.70    0.00   0.000   0.120   0.000    0.00
  13.500   20.24  -10.79   -0.66   0.000   0.120   0.000    0.00
  13.550   20.39  -11.81   -0.99   0.000   0.120   0.000    0.00
  13.600   22.33  -13.45   -0.82   0.000   0.120   0.000    0.00
  13.650   23.09  -12.64   -1.05   0.000   0.120   0.000    0.00
  13.700   22.85  -13.99   -0.76   0.000   0.120   0.000    0.00
  13.750   22.79  -13.78   -0.53   0.000   0.120   0.000    0.00
  13.800   22.68  -12.12    0.02   0.000   0.120   0.000    0.00
  13.850   21.83  -10.84   -0.22   0.000   0.120   0.000    0.00
  13.900   21.50   -9.98   -0.99   0.000   0.120   0.000    0.00
  13.950   21.80  -10.93   -0.67   0.000   0.120   0.000    0.00
  14.000   21.75   -9.06   -0.99   0.000   0.120   0.000    0.00
  14.050   22.23   -9.15   -0.00   0.000   0.120   0.000    0.00
  14.100   22.52  -10.16    1.00   0.000   0.120   0.000    0.00
  14.150   22.76   -7.79    1.07   0.000   0.120   0.000    0.00
  14.200   22.58   -7.94    0.96   0.000   0.120   0.000    0.00
  14.250   22.53  -10.16    1.16   0.000   0.120   0.000    0.00
  14.300   22.30   -9.62    1.19   0.000   0.120   0.000    0.00
  14.350   22.01  -10.28    0.85   0.000   0.120   0.000    0.00
  14.400   21.90  -12.18    0.27   0.000   0.120   0.000    0.00
  14.450   22.43  -10.61    0.63   0.000   0.120   0.000    0.00
  14.500   22.74  -11.27   -0.06   0.000   0.120   0.000    0.00
  14.550   22.09  -12.26    0.63   0.000   0.120   0.000    0.00
  14.600   21.55  -11.38    1.14   0.000   0.120   0.000    0.00
  14.650   21.38  -11.44    1.54   0.000   0.120   0.000    0.00
  14.700   20.18   -8.33    1.56   0.000   0.120   0.000    0.00
  14.750   20.35   -8.53    1.01   0.000   0.120   0.000    0.00
  14.800   20.93   -9.62    0.85   0.000   0.120   0.000    0.00
  14.850   20.14   -9.03    0.65   0.000   0.120   0.000    0.00
  14.900   20.36   -6.90    0.42   0.000   0.120   0.000    0.00
  14.950   21.02   -9.12    0.71   0.000   0.120   0.000    0.00
  15.000   21.46   -5.36    0.01   0.000   0.120   0.000    0.00
  15.050   20.59   -5.48    0.89   0.000   0.120   0.000    0.00
  15.100   20.24   -2.65    0.76   0.000   0.120   0.000    0.00
  15.150   18.90   -3.17   -0.21   0.000   0.120   0.000    0.00
  15.200   19.04   -3.12    0.17   0.000   0.120   0.000    0.00
  15.250   19.00   -4.20   -0.92   0.000   0.120   0.000    0.00
  15.300   19.60   -5.35    0.11   0.000   0.120   0.000    0.00
  15.350   19.36   -6.36    0.26   0.000   0.120   0.000    0.00
  15.400   19.02   -4.39    0.78   0.000   0.120   0.000    0.00
  15.450   19.38   -8.92    0.05   0.000   0.120   0.000    0.00
  15.500   20.12  -10.02   -0.75   0.000   0.120   0.000    0.00
  15.550   21.08   -7.16   -0.98   0.000   0.120   0.000    0.00
  15.600   20.44   -6.94   -2.44   0.000   0.120   0.000    0.00
  15.650   20.14   -4.06   -2.73   0.000   0.120   0.000    0.00
  15.700   19.12   -3.05   -2.47   0.000   0.120   0.000    0.00
  15.750   19.08   -2.81   -3.24   0.000   0.120   0.000    0.00
  15.800   18.90   -4.98   -2.77   0.000   0.120   0.000    0.00
  15.850   18.59   -4.65   -2.63   0.000   0.120   0.000    0.00
  15.900   17.98   -0.97   -3.03   0.000   0.120   0.000    0.00
  15.950   17.51   -0.55   -2.62   0.000   0.120   0.000    0.00
  16.000   17.87   -3.00   -2.95   0.000   0.120   0.000    0.00
  16.050   17.96   -4.07   -3.19   0.000   0.120   0.000    0.00
  16.100   18.27   -4.16   -2.15   0.000   0.120   0.000    0.00
  16.150   18.76   -5.16   -2.08   0.000   0.120   0.000    0.00
  16.200   18.52   -7.65   -2.32   0.000   0.120   0.000    0.00
  16.250   18.04   -2.54   -0.59   0.000   0.120   0.000    0.00
  16.300   18.23   -0.38   -0.73   0.000   0.120   0.000    0.00
  16.350   18.54   -2.22   -1.51   0.000   0.120   0.000    0.00
  16.400   19.77    0.30   -0.74   0.000   0.120   0.000    0.00
  16.450   20.23   -0.67    0.22   0.000   0.120   0.000    0.00
  16.500   20.06   -1.81   -0.03   0.000   0.120   0.000    0.00
  16.550   20.11   -3.08   -0.14   0.000   0.120   0.000    0.00
  16.600   20.73   -5.28   -1.03   0.000   0.120   0.000    0.00
  16.650   20.35   -3.80   -0.06   0.000   0.120   0.000    0.00
  16.700   20.35   -5.55   -0.20   0.000   0.120   0.000    0.00
  16.750   20.36   -5.61   -0.06   0.000   0.120   0.000    0.00
  16.800   20.11   -5.84   -0.54   0.000   0.120   0.000    0.00
  16.850   21.15   -7.41   -0.89   0.000   0.120   0.000    0.00
  16.900   21.62   -7.31   -0.95   0.000   0.120   0.000    0.00
  16.950   21.44   -7.14   -1.58   0.000   0.120   0.000    0.00
  17.000   21.48   -7.51   -1.87   0.000   0.120   0.000    0.00
  17.050   21.44   -7.58   -0.30   0.000   0.120   0.000    0.00
  17.100   21.66   -5.32   -0.14   0.000   0.120   0.000    0.00
  17.150   20.97   -2.17   -0.13   0.000   0.120   0.000    0.00
  17.200   20.77   -1.18    1.32   0.000   0.120   0.000    0.00
  17.250   21.34   -0.57    1.15   0.000   0.120   0.000    0.00
  17.300   21.49    0.73    0.98   0.000   0.120   0.000    0.00
  17.350   21.38    2.39    1.54   0.000   0.120   0.000    0.00
  17.400   21.22    2.59    1.27   0.000   0.120   0.000    0.00
  17.450   20.52    5.04    1.03   0.000   0.120   0.000    0.00
  17.500   20.99    6.60    1.85   0.000   0.120   0.000    0.00
  17.550   21.06    7.85    2.04   0.000   0.120   0.000    0.00
  17.600   21.00   11.05    1.02   0.000   0.120   0.000    0.00
  17.650   20.46    9.26    0.13   0.000   0.120   0.000    0.00
  17.700   21.07   10.19    0.85   0.000   0.120   0.000    0.00
  17.750   20.58    9.00   -0.41   0.000   0.120   0.000    0.00
  17.800   20.69    6.08   -0.35   0.000   0.120   0.000    0.00
  17.850   20.58    4.92   -0.34   0.000   0.120   0.000    0.00
  17.900   19.77    7.48   -0.04   0.000   0.120   0.000    0.00
  17.950   19.37    5.48   -0.29   0.000   0.120   0.000    0.00
  18.000   19.36    3.90    0.38   0.000   0.120   0.000    0.00
  18.050   19.86    3.96    0.20   0.000   0.120   0.000    0.00
  18.100   19.67    3.54    0.06   0.000   0.120   0.000    0.00
  18.150   20.37    3.68    0.78   0.000   0.120   0.000    0.00
  18.200   20.58    5.72    0.31   0.000   0.120   0.000    0.00
  18.250   20.32    4.46   -0.73   0.000   0.120   0.000    0.00
  18.300   20.64    4.50   -0.44   0.000   0.120   0.000    0.00
  18.350   20.67    4.96   -0.03   0.000   0.120   0.000    0.00
  18.400   20.33    5.41   -0.67   0.000   0.120   0.000    0.00
  18.450   19.91    5.39   -0.15   0.000   0.120   0.000    0.00
  18.500   20.25    4.37    0.05   0.000   0.120   0.000    0.00
  18.550   20.33    7.23   -0.73   0.000   0.120   0.000    0.00
  18.600   20.61    8.78   -0.71   0.000   0.120   0.000    0.00
  18.650   21.16    6.05   -0.98   0.000   0.120   0.000    0.00
  18.700   20.99    7.23   -1.19   0.000   0.120   0.000    0.00
  18.750   21.01    9.32   -0.65   0.000   0.120   0.000    0.00
  18.800   21.55   10.67   -0.90   0.000   0.120   0.000    0.00
  18.850   21.58   11.05   -1.17   0.000   0.120   0.000    0.00
  18.900   20.71   10.73   -0.04   0.000   0.120   0.000    0.00
  18.950   21.68   10.67   -0.40   0.000   0.120   0.000    0.00
  19.000   21.51   11.28    0.06   0.000   0.120   0.000    0.00
  19.050   21.07    7.80    0.74   0.000   0.120   0.000    0.00
  19.100   21.14    7.47    1.30   0.000   0.120   0.000    0.00
  19.150   21.20    7.96    1.15   0.000   0.120   0.000    0.00
  19.200   21.32    8.85    1.40   0.000   0.120   0.000    0.00
  19.250   21.57    9.70    1.85   0.000   0.120   0.000    0.00
  19.300   22.21   10.95    0.84   0.000   0.120   0.000    0.00
  19.350   22.04   10.91    0.81   0.000   0.120   0.000    0.00
  19.400   22.85   12.41    1.87   0.000   0.120   0.000    0.00
  19.450   23.09    9.44    1.29   0.000   0.120   0.000    0.00
  19.500   22.83    9.77    1.84   0.000   0.120   0.000    0.00
  19.550   22.61   10.92    1.58   0.000   0.120   0.000    0.00
  19.600   22.48    8.72    1.61   0.000   0.120   0.000    0.00
  19.650   22.43    7.64    1.10   0.000   0.120   0.000    0.00
  19.700   22.74    6.84    0.83   0.000   0.120   0.000    0.00
  19.750   22.02    6.71    1.63   0.000   0.120   0.000    0.00
  19.800   21.27    7.56    1.99   0.000   0.120   0.000    0.00
  19.850   20.24    8.19    2.49   0.000   0.120   0.000    0.00
  19.900   20.63    7.95    1.55   0.000   0.120   0.000    0.00
  19.950   21.87    3.57    1.29   0.000   0.120   0.000    0.00
  20.000   22.11    3.81    2.45   0.000   0.120   0.000    0.00
  20.050   21.99    5.21    1.70   0.000   0.120   0.000    0.00
  20.100   21.94    4.13    0.90   0.000   0.120   0.000    0.00
  20.150   22.44    4.42    0.58   0.000   0.120   0.000    0.00
  20.200   22.06    5.31    0.31   0.000   0.120   0.000    0.00
  20.250   21.01    3.42    2.18   0.000   0.120   0.000    0.00
  20.300   20.65    3.23    2.26   0.000   0.120   0.000    0.00
  20.350   21.93    3.46    1.76   0.000   0.120   0.000    0.00
  20.400   22.18    2.46    1.25   0.000   0.120   0.000    0.00
  20.450   22.82    0.64    0.37   0.000   0.120   0.000    0.00
  20.500   22.57   -0.01    0.60   0.000   0.120   0.000    0.00
  20.550   23.38    1.02    0.80   0.000   0.120   0.000    0.00
  20.600   22.99   -0.75    1.07   0.000   0.120   0.000    0.00
  20.650   22.40   -0.83    0.66   0.000   0.120   0.000    0.00
  20.700   22.67   -2.38    0.67   0.000   0.120   0.000    0.00
  20.750   21.41    0.09    1.31   0.000   0.120   0.000    0.00
  20.800   21.20    1.70    1.42   0.000   0.120   0.000    0.00
  20.850   21.30   -1.44    1.31   0.000   0.120   0.000    0.00
  20.900   21.73   -2.67    0.47   0.000   0.120   0.000    0.00
  20.950   22.51   -2.45   -0.26   0.000   0.120   0.000    0.00
  21.000   22.63   -1.99   -0.70   0.000   0.120   0.000    0.00
  21.050   23.17   -3.08   -0.67   0.000   0.120   0.000    0.00
  21.100   23.62   -1.45   -0.25   0.000   0.120   0.000    0.00
  21.150   23.17   -3.24    0.16   0.000   0.120   0.000    0.00
  21.200   23.36   -3.46    0.07   0.000   0.120   0.000    0.00
  21.250   23.63   -6.05    1.20   0.000   0.120   0.000    0.00
  21.300   23.46   -7.05   -0.29   0.000   0.120   0.000    0.00
  21.350   24.19   -6.33   -1.75   0.000   0.120   0.000    0.00
  21.400   24.75   -5.91   -1.98   0.000   0.120   0.000    0.00
  21.450   25.03   -5.02   -1.83   0.000   0.120   0.000    0.00
  21.500   24.53   -5.36   -0.49   0.000   0.120   0.000    0.00
  21.550   24.45   -3.79    0.55   0.000   0.120   0.000    0.00
  21.600   24.06   -2.66    1.09   0.000   0.120   0.000    0.00
  21.650   23.13   -1.82    1.07   0.000   0.120   0.000    0.00
  21.700   23.70   -1.33    0.59   0.000   0.120   0.000    0.00
  21.750   23.69   -2.06    0.60   0.000   0.120   0.000    0.00
  21.800   23.29   -2.75   -0.22   0.000   0.120   0.000    0.00
  21.850   23.66   -1.92   -0.10   0.000   0.120   0.000    0.00
  21.900   22.21   -3.21   -0.72   0.000   0.120   0.000    0.00
  21.950   22.83   -0.29   -1.69   0.000   0.120   0.000    0.00
  22.000   22.78   -1.56   -2.28   0.000   0.120   0.000    0.00
  22.050   22.98   -3.41   -2.57   0.000   0.120   0.000    0.00
  22.100   22.80   -2.20   -2.28   0.000   0.120   0.000    0.00
  22.150   22.69   -4.26   -1.82   0.000   0.120   0.000    0.00
  22.200   21.88   -4.22   -2.01   0.000   0.120   0.000    0.00
  22.250   22.05   -3.75   -1.88   0.000   0.120   0.000    0.00
  22.300   22.53   -1.74   -0.75   0.000   0.120   0.000    0.00
  22.350   22.63   -2.43   -1.00   0.000   0.120   0.000    0.00
  22.400   22.38   -0.79   -0.36   0.000   0.120   0.000    0.00
  22.450   22.02   -0.30   -0.94   0.000   0.120   0.000    0.00
  22.500   22.15   -1.49   -0.23   0.000   0.120   0.000    0.00
  22.550   22.38   -2.67    0.52   0.000   0.120   0.000    0.00
  22.600   21.84   -0.85    1.07   0.000   0.120   0.000    0.00
  22.650   22.43   -1.22    0.30   0.000   0.120   0.000    0.00
  22.700   22.93   -2.59   -0.67   0.000   0.120   0.000    0.00